data_image0
_cell_length_a       8.86339
_cell_length_b       8.86339
_cell_length_c       48.4524
_cell_angle_alpha    90
_cell_angle_beta     90
_cell_angle_gamma    84.1576

_symmetry_space_group_name_H-M    P 1
_symmetry_int_tables_number       1

loop_
  _symmetry_equiv_pos_as_xyz
  'x, y, z'

loop_
  _atom_site_label
  _atom_site_occupancy
  _atom_site_fract_x
  _atom_site_fract_y
  _atom_site_fract_z
  _atom_site_thermal_displace_type
  _atom_site_B_iso_or_equiv
  _atom_site_type_symbol
  O1       1.0000 0.77533  0.02533  0.58139  Biso   1.000  O
  O2       1.0000 0.50000  1.00000  0.55476  Biso   1.000  O
  Ti1      1.0000 0.37500  0.12500  0.57983  Biso   1.000  Ti
  O3       1.0000 0.50000  1.00000  0.60794  Biso   1.000  O
  O4       1.0000 0.52533  0.27533  0.58139  Biso   1.000  O
  Ti2      1.0000 0.50000  1.00000  0.64604  Biso   1.000  Ti
  O5       1.0000 0.46831  0.21831  0.65268  Biso   1.000  O
  O6       1.0000 0.28168  0.03168  0.65268  Biso   1.000  O
  O7       1.0000 0.25000  0.25000  0.55476  Biso   1.000  O
  Ti3      1.0000 0.12500  0.37500  0.57983  Biso   1.000  Ti
  Ti4      1.0000 1.00000  0.00000  0.58352  Biso   1.000  Ti
  O8       1.0000 0.25000  0.25000  0.60794  Biso   1.000  O
  O9       1.0000 1.00000  0.00000  0.62274  Biso   1.000  O
  O10      1.0000 0.27533  0.52533  0.58139  Biso   1.000  O
  Ti5      1.0000 0.25000  0.25000  0.64604  Biso   1.000  Ti
  O11      1.0000 1.00000  0.00000  0.67599  Biso   1.000  O
  O12      1.0000 0.21831  0.46832  0.65268  Biso   1.000  O
  O13      1.0000 0.03168  0.28168  0.65268  Biso   1.000  O
  O14      1.0000 1.00000  0.50000  0.55476  Biso   1.000  O
  O15      1.0000 1.00000  0.50000  0.60794  Biso   1.000  O
  O16      1.0000 0.02533  0.77533  0.58139  Biso   1.000  O
  Ti6      1.0000 1.00000  0.50000  0.64604  Biso   1.000  Ti
  O17      1.0000 0.97467  0.22467  0.58139  Biso   1.000  O
  Ti7      1.0000 0.87500  0.12500  0.65338  Biso   1.000  Ti
  Ti8      1.0000 0.87500  0.62500  0.57983  Biso   1.000  Ti
  Ti9      1.0000 0.75000  0.25000  0.58352  Biso   1.000  Ti
  O18      1.0000 0.72467  0.47467  0.58139  Biso   1.000  O
  O19      1.0000 0.75000  0.25000  0.62274  Biso   1.000  O
  Ti10     1.0000 0.62500  0.37500  0.65338  Biso   1.000  Ti
  O20      1.0000 0.75000  0.25000  0.67599  Biso   1.000  O
  O21      1.0000 0.96832  0.71831  0.65268  Biso   1.000  O
  O22      1.0000 0.78168  0.53168  0.65268  Biso   1.000  O
  O23      1.0000 0.75000  0.75000  0.55476  Biso   1.000  O
  Ti11     1.0000 0.62500  0.87500  0.57983  Biso   1.000  Ti
  Ti12     1.0000 0.50000  0.50000  0.58352  Biso   1.000  Ti
  O24      1.0000 0.75000  0.75000  0.60794  Biso   1.000  O
  O25      1.0000 0.47467  0.72467  0.58139  Biso   1.000  O
  O26      1.0000 0.50000  0.50000  0.62274  Biso   1.000  O
  Ti13     1.0000 0.37500  0.62500  0.65338  Biso   1.000  Ti
  Ti14     1.0000 0.75000  0.75000  0.64604  Biso   1.000  Ti
  O27      1.0000 0.50000  0.50000  0.67599  Biso   1.000  O
  O28      1.0000 0.71831  0.96831  0.65268  Biso   1.000  O
  O29      1.0000 0.53168  0.78169  0.65268  Biso   1.000  O
  Ti15     1.0000 0.25000  0.75000  0.58352  Biso   1.000  Ti
  O30      1.0000 0.22467  0.97467  0.58139  Biso   1.000  O
  O31      1.0000 0.25000  0.75000  0.62274  Biso   1.000  O
  Ti16     1.0000 0.12500  0.87500  0.65338  Biso   1.000  Ti
  O32      1.0000 0.25000  0.75000  0.67599  Biso   1.000  O
